9
Reference geometry (ANGSTROMS)
C   1.749001003105722   -1.521547715628024    0.000000323804997 
O   1.791996240209603   -0.358606276905367    0.000002144990767 
O   1.717371070611967   -2.681627578438584   -0.000001231637537 
C  -2.192199473326841   -0.753905435606395    0.000000174536382 
O  -3.181043170287973   -0.146473230657733    0.000001127745489 
O  -1.206560229175002   -1.372611068727565   -0.000000762653295 
C   0.443198469278175    2.275453150989628   -0.000000587345998 
O  -0.585435970417992    1.731217384145280   -0.000001351581114 
O   1.463672059766830    2.828100770767622    0.000000139910376 
